<?xml version="1.0" encoding="UTF-8" standalone="yes"?>
<template encoding-version="1.3">
    <description></description>
    <groupId>1a7433ae-0181-1000-498a-09c67032412d</groupId>
    <name>Streaming-Demo NiFi Flow</name>
    <snippet>
        <labels>
            <id>03363179-1925-3bf0-0000-000000000000</id>
            <parentGroupId>1eabb411-54f9-3933-0000-000000000000</parentGroupId>
            <position>
                <x>0.0</x>
                <y>0.0</y>
            </position>
            <height>192.0</height>
            <label>Running Python simulator script located in /opt/demo/simulate.py to generate sensor data.</label>
            <style>
                <entry>
                    <key>font-size</key>
                    <value>12px</value>
                </entry>
            </style>
            <width>496.0</width>
        </labels>
        <labels>
            <id>68eac56e-4649-3618-0000-000000000000</id>
            <parentGroupId>1eabb411-54f9-3933-0000-000000000000</parentGroupId>
            <position>
                <x>0.0</x>
                <y>216.0</y>
            </position>
            <height>208.0</height>
            <label>Send sensor data to Kafka</label>
            <style>
                <entry>
                    <key>background-color</key>
                    <value>#d6fffa</value>
                </entry>
                <entry>
                    <key>font-size</key>
                    <value>12px</value>
                </entry>
            </style>
            <width>496.0</width>
        </labels>
        <processGroups>
            <id>8bc46f2d-2359-331d-0000-000000000000</id>
            <parentGroupId>1eabb411-54f9-3933-0000-000000000000</parentGroupId>
            <position>
                <x>56.0</x>
                <y>240.0</y>
            </position>
            <versionedComponentId>8bc46f2d-2359-331d-9f3c-2aeb03a4b5d8</versionedComponentId>
            <comments></comments>
            <contents>
                <connections>
                    <id>39bea40f-4522-3679-0000-000000000000</id>
                    <parentGroupId>8bc46f2d-2359-331d-0000-000000000000</parentGroupId>
                    <versionedComponentId>39bea40f-4522-3679-9733-42e5bc19e1eb</versionedComponentId>
                    <backPressureDataSizeThreshold>1 GB</backPressureDataSizeThreshold>
                    <backPressureObjectThreshold>10000</backPressureObjectThreshold>
                    <destination>
                        <groupId>8bc46f2d-2359-331d-0000-000000000000</groupId>
                        <id>50ff7b71-17f1-3aab-0000-000000000000</id>
                        <type>PROCESSOR</type>
                        <versionedComponentId>50ff7b71-17f1-3aab-a117-b0043cb57f42</versionedComponentId>
                    </destination>
                    <flowFileExpiration>0 sec</flowFileExpiration>
                    <labelIndex>1</labelIndex>
                    <loadBalanceCompression>DO_NOT_COMPRESS</loadBalanceCompression>
                    <loadBalancePartitionAttribute></loadBalancePartitionAttribute>
                    <loadBalanceStatus>LOAD_BALANCE_NOT_CONFIGURED</loadBalanceStatus>
                    <loadBalanceStrategy>DO_NOT_LOAD_BALANCE</loadBalanceStrategy>
                    <name></name>
                    <selectedRelationships>Message</selectedRelationships>
                    <source>
                        <groupId>8bc46f2d-2359-331d-0000-000000000000</groupId>
                        <id>82077613-4d06-378b-0000-000000000000</id>
                        <type>PROCESSOR</type>
                        <versionedComponentId>82077613-4d06-378b-90f2-a52b015742f7</versionedComponentId>
                    </source>
                    <zIndex>0</zIndex>
                </connections>
                <connections>
                    <id>69886c9c-f4e3-3e16-0000-000000000000</id>
                    <parentGroupId>8bc46f2d-2359-331d-0000-000000000000</parentGroupId>
                    <versionedComponentId>69886c9c-f4e3-3e16-b248-9cdc5a0647ea</versionedComponentId>
                    <backPressureDataSizeThreshold>1 GB</backPressureDataSizeThreshold>
                    <backPressureObjectThreshold>10000</backPressureObjectThreshold>
                    <destination>
                        <groupId>8bc46f2d-2359-331d-0000-000000000000</groupId>
                        <id>83df2be3-1a5a-34f7-0000-000000000000</id>
                        <type>PROCESSOR</type>
                        <versionedComponentId>83df2be3-1a5a-34f7-b5e4-d97143dcb82e</versionedComponentId>
                    </destination>
                    <flowFileExpiration>0 sec</flowFileExpiration>
                    <labelIndex>1</labelIndex>
                    <loadBalanceCompression>DO_NOT_COMPRESS</loadBalanceCompression>
                    <loadBalancePartitionAttribute></loadBalancePartitionAttribute>
                    <loadBalanceStatus>LOAD_BALANCE_NOT_CONFIGURED</loadBalanceStatus>
                    <loadBalanceStrategy>DO_NOT_LOAD_BALANCE</loadBalanceStrategy>
                    <name></name>
                    <selectedRelationships>success</selectedRelationships>
                    <source>
                        <groupId>8bc46f2d-2359-331d-0000-000000000000</groupId>
                        <id>50ff7b71-17f1-3aab-0000-000000000000</id>
                        <type>PROCESSOR</type>
                        <versionedComponentId>50ff7b71-17f1-3aab-a117-b0043cb57f42</versionedComponentId>
                    </source>
                    <zIndex>0</zIndex>
                </connections>
                <connections>
                    <id>bc5ae4d7-b979-3e45-0000-000000000000</id>
                    <parentGroupId>8bc46f2d-2359-331d-0000-000000000000</parentGroupId>
                    <versionedComponentId>bc5ae4d7-b979-3e45-b8c2-d4fe29184fbc</versionedComponentId>
                    <backPressureDataSizeThreshold>1 GB</backPressureDataSizeThreshold>
                    <backPressureObjectThreshold>10000</backPressureObjectThreshold>
                    <destination>
                        <groupId>8bc46f2d-2359-331d-0000-000000000000</groupId>
                        <id>11f3b01f-2c35-3a43-0000-000000000000</id>
                        <type>FUNNEL</type>
                        <versionedComponentId>11f3b01f-2c35-3a43-9727-e86af8c68052</versionedComponentId>
                    </destination>
                    <flowFileExpiration>0 sec</flowFileExpiration>
                    <labelIndex>1</labelIndex>
                    <loadBalanceCompression>DO_NOT_COMPRESS</loadBalanceCompression>
                    <loadBalancePartitionAttribute></loadBalancePartitionAttribute>
                    <loadBalanceStatus>LOAD_BALANCE_NOT_CONFIGURED</loadBalanceStatus>
                    <loadBalanceStrategy>DO_NOT_LOAD_BALANCE</loadBalanceStrategy>
                    <name></name>
                    <selectedRelationships>failure</selectedRelationships>
                    <source>
                        <groupId>8bc46f2d-2359-331d-0000-000000000000</groupId>
                        <id>83df2be3-1a5a-34f7-0000-000000000000</id>
                        <type>PROCESSOR</type>
                        <versionedComponentId>83df2be3-1a5a-34f7-b5e4-d97143dcb82e</versionedComponentId>
                    </source>
                    <zIndex>0</zIndex>
                </connections>
                <controllerServices>
                    <id>4612fb52-2209-3146-0000-000000000000</id>
                    <parentGroupId>8bc46f2d-2359-331d-0000-000000000000</parentGroupId>
                    <versionedComponentId>4612fb52-2209-3146-a1dd-a3fc021fe290</versionedComponentId>
                    <bundle>
                        <artifact>nifi-hwx-schema-registry-nar</artifact>
                        <group>org.apache.nifi</group>
                        <version>1.15.2.2.1.3.0-125</version>
                    </bundle>
                    <comments></comments>
                    <descriptors>
                        <entry>
                            <key>url</key>
                            <value>
<name>url</name>
                            </value>
                        </entry>
                        <entry>
                            <key>cache-size</key>
                            <value>
<name>cache-size</name>
                            </value>
                        </entry>
                        <entry>
                            <key>cache-expiration</key>
                            <value>
<name>cache-expiration</name>
                            </value>
                        </entry>
                        <entry>
                            <key>ssl-context-service</key>
                            <value>
<identifiesControllerService>org.apache.nifi.ssl.SSLContextService</identifiesControllerService>
<name>ssl-context-service</name>
                            </value>
                        </entry>
                        <entry>
                            <key>kerberos-credentials-service</key>
                            <value>
<identifiesControllerService>org.apache.nifi.kerberos.KerberosCredentialsService</identifiesControllerService>
<name>kerberos-credentials-service</name>
                            </value>
                        </entry>
                        <entry>
                            <key>kerberos-principal</key>
                            <value>
<name>kerberos-principal</name>
                            </value>
                        </entry>
                        <entry>
                            <key>kerberos-password</key>
                            <value>
<name>kerberos-password</name>
                            </value>
                        </entry>
                    </descriptors>
                    <name>HortonworksSchemaRegistry</name>
                    <persistsState>false</persistsState>
                    <properties>
                        <entry>
                            <key>url</key>
                            <value>http://52.48.192.20:7788/api/v1</value>
                        </entry>
                        <entry>
                            <key>cache-size</key>
                            <value>1000</value>
                        </entry>
                        <entry>
                            <key>cache-expiration</key>
                            <value>1 hour</value>
                        </entry>
                        <entry>
                            <key>ssl-context-service</key>
                        </entry>
                        <entry>
                            <key>kerberos-credentials-service</key>
                        </entry>
                        <entry>
                            <key>kerberos-principal</key>
                        </entry>
                        <entry>
                            <key>kerberos-password</key>
                        </entry>
                    </properties>
                    <state>ENABLED</state>
                    <type>org.apache.nifi.schemaregistry.hortonworks.HortonworksSchemaRegistry</type>
                </controllerServices>
                <controllerServices>
                    <id>5b0ec681-49c2-3e65-0000-000000000000</id>
                    <parentGroupId>8bc46f2d-2359-331d-0000-000000000000</parentGroupId>
                    <versionedComponentId>5b0ec681-49c2-3e65-8a40-6e69065e38f1</versionedComponentId>
                    <bundle>
                        <artifact>nifi-record-serialization-services-nar</artifact>
                        <group>org.apache.nifi</group>
                        <version>1.15.2.2.1.3.0-125</version>
                    </bundle>
                    <comments></comments>
                    <descriptors>
                        <entry>
                            <key>Schema Write Strategy</key>
                            <value>
<name>Schema Write Strategy</name>
                            </value>
                        </entry>
                        <entry>
                            <key>schema-cache</key>
                            <value>
<identifiesControllerService>org.apache.nifi.serialization.RecordSchemaCacheService</identifiesControllerService>
<name>schema-cache</name>
                            </value>
                        </entry>
                        <entry>
                            <key>schema-protocol-version</key>
                            <value>
<dependencies>
    <dependentValues>hwx-schema-ref-attributes</dependentValues>
    <dependentValues>hwx-content-encoded-schema</dependentValues>
    <propertyName>Schema Write Strategy</propertyName>
</dependencies>
<name>schema-protocol-version</name>
                            </value>
                        </entry>
                        <entry>
                            <key>schema-access-strategy</key>
                            <value>
<name>schema-access-strategy</name>
                            </value>
                        </entry>
                        <entry>
                            <key>schema-registry</key>
                            <value>
<dependencies>
    <dependentValues>confluent-encoded</dependentValues>
    <dependentValues>schema-name</dependentValues>
    <dependentValues>hwx-schema-ref-attributes</dependentValues>
    <dependentValues>hwx-content-encoded-schema</dependentValues>
    <propertyName>schema-access-strategy</propertyName>
</dependencies>
<identifiesControllerService>org.apache.nifi.schemaregistry.services.SchemaRegistry</identifiesControllerService>
<name>schema-registry</name>
                            </value>
                        </entry>
                        <entry>
                            <key>schema-name</key>
                            <value>
<dependencies>
    <dependentValues>schema-name</dependentValues>
    <propertyName>schema-access-strategy</propertyName>
</dependencies>
<name>schema-name</name>
                            </value>
                        </entry>
                        <entry>
                            <key>schema-version</key>
                            <value>
<dependencies>
    <dependentValues>schema-name</dependentValues>
    <propertyName>schema-access-strategy</propertyName>
</dependencies>
<name>schema-version</name>
                            </value>
                        </entry>
                        <entry>
                            <key>schema-branch</key>
                            <value>
<dependencies>
    <dependentValues>schema-name</dependentValues>
    <propertyName>schema-access-strategy</propertyName>
</dependencies>
<name>schema-branch</name>
                            </value>
                        </entry>
                        <entry>
                            <key>schema-text</key>
                            <value>
<dependencies>
    <dependentValues>schema-text-property</dependentValues>
    <propertyName>schema-access-strategy</propertyName>
</dependencies>
<name>schema-text</name>
                            </value>
                        </entry>
                        <entry>
                            <key>Date Format</key>
                            <value>
<name>Date Format</name>
                            </value>
                        </entry>
                        <entry>
                            <key>Time Format</key>
                            <value>
<name>Time Format</name>
                            </value>
                        </entry>
                        <entry>
                            <key>Timestamp Format</key>
                            <value>
<name>Timestamp Format</name>
                            </value>
                        </entry>
                        <entry>
                            <key>Pretty Print JSON</key>
                            <value>
<name>Pretty Print JSON</name>
                            </value>
                        </entry>
                        <entry>
                            <key>suppress-nulls</key>
                            <value>
<name>suppress-nulls</name>
                            </value>
                        </entry>
                        <entry>
                            <key>output-grouping</key>
                            <value>
<name>output-grouping</name>
                            </value>
                        </entry>
                        <entry>
                            <key>compression-format</key>
                            <value>
<name>compression-format</name>
                            </value>
                        </entry>
                        <entry>
                            <key>compression-level</key>
                            <value>
<dependencies>
    <dependentValues>gzip</dependentValues>
    <propertyName>compression-format</propertyName>
</dependencies>
<name>compression-level</name>
                            </value>
                        </entry>
                    </descriptors>
                    <name>JsonRecordSetWriter</name>
                    <persistsState>false</persistsState>
                    <properties>
                        <entry>
                            <key>Schema Write Strategy</key>
                            <value>hwx-schema-ref-attributes</value>
                        </entry>
                        <entry>
                            <key>schema-cache</key>
                        </entry>
                        <entry>
                            <key>schema-protocol-version</key>
                            <value>1</value>
                        </entry>
                        <entry>
                            <key>schema-access-strategy</key>
                            <value>inherit-record-schema</value>
                        </entry>
                        <entry>
                            <key>schema-registry</key>
                        </entry>
                        <entry>
                            <key>schema-name</key>
                            <value>${schema.name}</value>
                        </entry>
                        <entry>
                            <key>schema-version</key>
                        </entry>
                        <entry>
                            <key>schema-branch</key>
                        </entry>
                        <entry>
                            <key>schema-text</key>
                            <value>${avro.schema}</value>
                        </entry>
                        <entry>
                            <key>Date Format</key>
                        </entry>
                        <entry>
                            <key>Time Format</key>
                        </entry>
                        <entry>
                            <key>Timestamp Format</key>
                        </entry>
                        <entry>
                            <key>Pretty Print JSON</key>
                            <value>false</value>
                        </entry>
                        <entry>
                            <key>suppress-nulls</key>
                            <value>never-suppress</value>
                        </entry>
                        <entry>
                            <key>output-grouping</key>
                            <value>output-array</value>
                        </entry>
                        <entry>
                            <key>compression-format</key>
                            <value>none</value>
                        </entry>
                        <entry>
                            <key>compression-level</key>
                            <value>1</value>
                        </entry>
                    </properties>
                    <state>ENABLED</state>
                    <type>org.apache.nifi.json.JsonRecordSetWriter</type>
                </controllerServices>
                <controllerServices>
                    <id>b437a75d-7c97-3f08-0000-000000000000</id>
                    <parentGroupId>8bc46f2d-2359-331d-0000-000000000000</parentGroupId>
                    <versionedComponentId>b437a75d-7c97-3f08-9103-8c475dd4aadb</versionedComponentId>
                    <bundle>
                        <artifact>nifi-record-serialization-services-nar</artifact>
                        <group>org.apache.nifi</group>
                        <version>1.15.2.2.1.3.0-125</version>
                    </bundle>
                    <comments></comments>
                    <descriptors>
                        <entry>
                            <key>schema-access-strategy</key>
                            <value>
<name>schema-access-strategy</name>
                            </value>
                        </entry>
                        <entry>
                            <key>schema-registry</key>
                            <value>
<dependencies>
    <dependentValues>confluent-encoded</dependentValues>
    <dependentValues>schema-name</dependentValues>
    <dependentValues>hwx-schema-ref-attributes</dependentValues>
    <dependentValues>hwx-content-encoded-schema</dependentValues>
    <propertyName>schema-access-strategy</propertyName>
</dependencies>
<identifiesControllerService>org.apache.nifi.schemaregistry.services.SchemaRegistry</identifiesControllerService>
<name>schema-registry</name>
                            </value>
                        </entry>
                        <entry>
                            <key>schema-name</key>
                            <value>
<dependencies>
    <dependentValues>schema-name</dependentValues>
    <propertyName>schema-access-strategy</propertyName>
</dependencies>
<name>schema-name</name>
                            </value>
                        </entry>
                        <entry>
                            <key>schema-version</key>
                            <value>
<dependencies>
    <dependentValues>schema-name</dependentValues>
    <propertyName>schema-access-strategy</propertyName>
</dependencies>
<name>schema-version</name>
                            </value>
                        </entry>
                        <entry>
                            <key>schema-branch</key>
                            <value>
<dependencies>
    <dependentValues>schema-name</dependentValues>
    <propertyName>schema-access-strategy</propertyName>
</dependencies>
<name>schema-branch</name>
                            </value>
                        </entry>
                        <entry>
                            <key>schema-text</key>
                            <value>
<dependencies>
    <dependentValues>schema-text-property</dependentValues>
    <propertyName>schema-access-strategy</propertyName>
</dependencies>
<name>schema-text</name>
                            </value>
                        </entry>
                        <entry>
                            <key>schema-inference-cache</key>
                            <value>
<dependencies>
    <dependentValues>infer-schema</dependentValues>
    <propertyName>schema-access-strategy</propertyName>
</dependencies>
<identifiesControllerService>org.apache.nifi.serialization.RecordSchemaCacheService</identifiesControllerService>
<name>schema-inference-cache</name>
                            </value>
                        </entry>
                        <entry>
                            <key>Date Format</key>
                            <value>
<name>Date Format</name>
                            </value>
                        </entry>
                        <entry>
                            <key>Time Format</key>
                            <value>
<name>Time Format</name>
                            </value>
                        </entry>
                        <entry>
                            <key>Timestamp Format</key>
                            <value>
<name>Timestamp Format</name>
                            </value>
                        </entry>
                    </descriptors>
                    <name>JsonTreeReader</name>
                    <persistsState>false</persistsState>
                    <properties>
                        <entry>
                            <key>schema-access-strategy</key>
                            <value>schema-name</value>
                        </entry>
                        <entry>
                            <key>schema-registry</key>
                            <value>4612fb52-2209-3146-0000-000000000000</value>
                        </entry>
                        <entry>
                            <key>schema-name</key>
                            <value>${schema.name}</value>
                        </entry>
                        <entry>
                            <key>schema-version</key>
                        </entry>
                        <entry>
                            <key>schema-branch</key>
                        </entry>
                        <entry>
                            <key>schema-text</key>
                            <value>${avro.schema}</value>
                        </entry>
                        <entry>
                            <key>schema-inference-cache</key>
                        </entry>
                        <entry>
                            <key>Date Format</key>
                        </entry>
                        <entry>
                            <key>Time Format</key>
                        </entry>
                        <entry>
                            <key>Timestamp Format</key>
                        </entry>
                    </properties>
                    <state>ENABLED</state>
                    <type>org.apache.nifi.json.JsonTreeReader</type>
                </controllerServices>
                <funnels>
                    <id>11f3b01f-2c35-3a43-0000-000000000000</id>
                    <parentGroupId>8bc46f2d-2359-331d-0000-000000000000</parentGroupId>
                    <position>
                        <x>824.0</x>
                        <y>720.0</y>
                    </position>
                    <versionedComponentId>11f3b01f-2c35-3a43-9727-e86af8c68052</versionedComponentId>
                </funnels>
                <processors>
                    <id>50ff7b71-17f1-3aab-0000-000000000000</id>
                    <parentGroupId>8bc46f2d-2359-331d-0000-000000000000</parentGroupId>
                    <position>
                        <x>200.0</x>
                        <y>424.0</y>
                    </position>
                    <versionedComponentId>50ff7b71-17f1-3aab-a117-b0043cb57f42</versionedComponentId>
                    <bundle>
                        <artifact>nifi-update-attribute-nar</artifact>
                        <group>org.apache.nifi</group>
                        <version>1.15.2.2.1.3.0-125</version>
                    </bundle>
                    <config>
                        <bulletinLevel>WARN</bulletinLevel>
                        <comments></comments>
                        <concurrentlySchedulableTaskCount>1</concurrentlySchedulableTaskCount>
                        <descriptors>
                            <entry>
<key>Delete Attributes Expression</key>
<value>
    <name>Delete Attributes Expression</name>
</value>
                            </entry>
                            <entry>
<key>Store State</key>
<value>
    <name>Store State</name>
</value>
                            </entry>
                            <entry>
<key>Stateful Variables Initial Value</key>
<value>
    <name>Stateful Variables Initial Value</name>
</value>
                            </entry>
                            <entry>
<key>canonical-value-lookup-cache-size</key>
<value>
    <name>canonical-value-lookup-cache-size</name>
</value>
                            </entry>
                            <entry>
<key>schema.name</key>
<value>
    <name>schema.name</name>
</value>
                            </entry>
                        </descriptors>
                        <executionNode>ALL</executionNode>
                        <lossTolerant>false</lossTolerant>
                        <penaltyDuration>30 sec</penaltyDuration>
                        <properties>
                            <entry>
<key>Delete Attributes Expression</key>
                            </entry>
                            <entry>
<key>Store State</key>
<value>Do not store state</value>
                            </entry>
                            <entry>
<key>Stateful Variables Initial Value</key>
                            </entry>
                            <entry>
<key>canonical-value-lookup-cache-size</key>
<value>100</value>
                            </entry>
                            <entry>
<key>schema.name</key>
<value>SensorReading</value>
                            </entry>
                        </properties>
                        <runDurationMillis>0</runDurationMillis>
                        <schedulingPeriod>0 sec</schedulingPeriod>
                        <schedulingStrategy>TIMER_DRIVEN</schedulingStrategy>
                        <yieldDuration>1 sec</yieldDuration>
                    </config>
                    <executionNodeRestricted>false</executionNodeRestricted>
                    <name>set schema name</name>
                    <relationships>
                        <autoTerminate>false</autoTerminate>
                        <name>success</name>
                    </relationships>
                    <state>RUNNING</state>
                    <style/>
                    <type>org.apache.nifi.processors.attributes.UpdateAttribute</type>
                </processors>
                <processors>